20180601/IEEE_37_Bus_allwye.dss
Clear

! Note that this is a 3-wire delta system. 
! Node voltages in OpenDSS are normally line-ground and may give strange-looking results
! Be careful if you put line-neutral connected loads or other devices on this circuit.

New object=circuit.ieee37
~ basekv=230 pu=1.00 MVAsc3=200000 MVAsc1=210000

! Substation Transformer
New Transformer.SubXF Phases=3 Windings=2 Xhl=8
! ~ wdg=1 bus=sourcebus conn=Delta kv=230 kva=2500 %r=1
! ~ wdg=2 bus=799 conn=Delta kv=4.8 kva=2500 %r=1
~ wdg=1 bus=sourcebus conn=Wye kv=230 kva=2500 %r=1
~ wdg=2 bus=799 conn=Wye kv=4.8 kva=2500 %r=1

! Load Transformer
New Transformer.XFM1 Phases=3 Windings=2 Xhl=1.81
! ~ wdg=1 bus=709 conn=Delta kv=4.80 kva=500 %r=0.045
! ~ wdg=2 bus=775 conn=Delta kv=0.48 kva=500 %r=0.045
~ wdg=1 bus=709 conn=Wye kv=4.80 kva=500 %r=0.045
~ wdg=2 bus=775 conn=Wye kv=0.48 kva=500 %r=0.045

! import line codes with phase impedance matrices
Redirect IEEELineCodes.dss

! Lines
New Line.line_701_702 Phases=3 Bus1=701.1.2.3 Bus2=702.1.2.3 LineCode=722 Length=0.96 units=kft
New Line.line_702_705 Phases=3 Bus1=702.1.2.3 Bus2=705.1.2.3 LineCode=724 Length=0.4 units=kft
New Line.line_702_713 Phases=3 Bus1=702.1.2.3 Bus2=713.1.2.3 LineCode=723 Length=0.36 units=kft
New Line.line_702_703 Phases=3 Bus1=702.1.2.3 Bus2=703.1.2.3 LineCode=722 Length=1.32 units=kft
New Line.line_703_727 Phases=3 Bus1=703.1.2.3 Bus2=727.1.2.3 LineCode=724 Length=0.24 units=kft
New Line.line_703_730 Phases=3 Bus1=703.1.2.3 Bus2=730.1.2.3 LineCode=723 Length=0.6 units=kft
New Line.line_704_714 Phases=3 Bus1=704.1.2.3 Bus2=714.1.2.3 LineCode=724 Length=0.08 units=kft
New Line.line_704_720 Phases=3 Bus1=704.1.2.3 Bus2=720.1.2.3 LineCode=723 Length=0.8 units=kft
New Line.line_705_742 Phases=3 Bus1=705.1.2.3 Bus2=742.1.2.3 LineCode=724 Length=0.32 units=kft
New Line.line_705_712 Phases=3 Bus1=705.1.2.3 Bus2=712.1.2.3 LineCode=724 Length=0.24 units=kft
New Line.line_706_725 Phases=3 Bus1=706.1.2.3 Bus2=725.1.2.3 LineCode=724 Length=0.28 units=kft
New Line.line_707_724 Phases=3 Bus1=707.1.2.3 Bus2=724.1.2.3 LineCode=724 Length=0.76 units=kft
New Line.line_707_722 Phases=3 Bus1=707.1.2.3 Bus2=722.1.2.3 LineCode=724 Length=0.12 units=kft
New Line.line_708_733 Phases=3 Bus1=708.1.2.3 Bus2=733.1.2.3 LineCode=723 Length=0.32 units=kft
New Line.line_708_732 Phases=3 Bus1=708.1.2.3 Bus2=732.1.2.3 LineCode=724 Length=0.32 units=kft
New Line.line_709_731 Phases=3 Bus1=709.1.2.3 Bus2=731.1.2.3 LineCode=723 Length=0.6 units=kft
New Line.line_709_708 Phases=3 Bus1=709.1.2.3 Bus2=708.1.2.3 LineCode=723 Length=0.32 units=kft
New Line.line_710_735 Phases=3 Bus1=710.1.2.3 Bus2=735.1.2.3 LineCode=724 Length=0.2 units=kft
New Line.line_710_736 Phases=3 Bus1=710.1.2.3 Bus2=736.1.2.3 LineCode=724 Length=1.28 units=kft
New Line.line_711_741 Phases=3 Bus1=711.1.2.3 Bus2=741.1.2.3 LineCode=723 Length=0.4 units=kft
New Line.line_711_740 Phases=3 Bus1=711.1.2.3 Bus2=740.1.2.3 LineCode=724 Length=0.2 units=kft
New Line.line_713_704 Phases=3 Bus1=713.1.2.3 Bus2=704.1.2.3 LineCode=723 Length=0.52 units=kft
New Line.line_714_718 Phases=3 Bus1=714.1.2.3 Bus2=718.1.2.3 LineCode=724 Length=0.52 units=kft
New Line.line_720_707 Phases=3 Bus1=720.1.2.3 Bus2=707.1.2.3 LineCode=724 Length=0.92 units=kft
New Line.line_720_706 Phases=3 Bus1=720.1.2.3 Bus2=706.1.2.3 LineCode=723 Length=0.6 units=kft
New Line.line_727_744 Phases=3 Bus1=727.1.2.3 Bus2=744.1.2.3 LineCode=723 Length=0.28 units=kft
New Line.line_730_709 Phases=3 Bus1=730.1.2.3 Bus2=709.1.2.3 LineCode=723 Length=0.2 units=kft
New Line.line_733_734 Phases=3 Bus1=733.1.2.3 Bus2=734.1.2.3 LineCode=723 Length=0.56 units=kft
New Line.line_734_737 Phases=3 Bus1=734.1.2.3 Bus2=737.1.2.3 LineCode=723 Length=0.64 units=kft
New Line.line_734_710 Phases=3 Bus1=734.1.2.3 Bus2=710.1.2.3 LineCode=724 Length=0.52 units=kft
New Line.line_737_738 Phases=3 Bus1=737.1.2.3 Bus2=738.1.2.3 LineCode=723 Length=0.4 units=kft
New Line.line_738_711 Phases=3 Bus1=738.1.2.3 Bus2=711.1.2.3 LineCode=723 Length=0.4 units=kft
New Line.line_744_728 Phases=3 Bus1=744.1.2.3 Bus2=728.1.2.3 LineCode=724 Length=0.2 units=kft
New Line.line_744_729 Phases=3 Bus1=744.1.2.3 Bus2=729.1.2.3 LineCode=724 Length=0.28 units=kft
New Line.line_799r_701 Phases=3 Bus1=799r.1.2.3 Bus2=701.1.2.3 LineCode=721 Length=1.85 units=kft

! Regulator - open delta with C leading, A lagging, base LDC setting is 1.5 + j3
! new transformer.reg1a phases=1 windings=2 bank=reg1 buses=(799.1.2 799r.1.2) conns='delta delta' kvs="4.8 4.8" kvas="2000 2000" XHL=1
! new regcontrol.creg1a transformer=reg1a winding=2 vreg=122 band=2 ptratio=40 ctprim=350 R=-0.201 X=3.348
! new transformer.reg1c like=reg1a bank=reg1 buses=(799.3.2 799r.3.2)
! new regcontrol.creg1c like=creg1a transformer=reg1c R=2.799 X=1.848
! New Line.line_799_799r Phases=1 Bus1=799.2 Bus2=799r.2 r0=1e-3 r1=1e-3 x0=0 x1=0 c0=0 c1=0

new transformer.reg1a phases=1 windings=2 bank=reg1 buses=(799.1 799r.1) conns='wye wye' kvs="2.77128 2.77128" kvas="2000 2000" XHL=1
new regcontrol.creg1a transformer=reg1a winding=2 vreg=138 band=2 ptratio=20 ctprim=350 R=-0.201 X=3.348

new transformer.reg1b phases=1 windings=2 bank=reg1 buses=(799.2 799r.2) conns='wye wye' kvs="2.77128 2.77128" kvas="2000 2000" XHL=1
new regcontrol.creg1b transformer=reg1b winding=2 vreg=138 band=2 ptratio=20 ctprim=350 R=-0.201 X=3.348

new transformer.reg1c phases=1 windings=2 bank=reg1 buses=(799.3 799r.3) conns='wye wye' kvs="2.77128 2.77128" kvas="2000 2000" XHL=1
new regcontrol.creg1c transformer=reg1c winding=2 vreg=138 band=2 ptratio=20 ctprim=350 R=-0.201 X=3.348

! New Line.line_799_799r Phases=1 Bus1=799.2 Bus2=799r.2 r0=1e-3 r1=1e-3 x0=0 x1=0 c0=0 c1=0

! spot loads
! New Load.S701ab Bus1=701.1.2 Phases=1 Conn=Delta Model=1 kV=4.800 kW=140.0 kVAR=70.0
! New Load.S701bc Bus1=701.2.3 Phases=1 Conn=Delta Model=1 kV=4.800 kW=140.0 kVAR=70.0
! New Load.S701ca Bus1=701.3.1 Phases=1 Conn=Delta Model=1 kV=4.800 kW=350.0 kVAR=175.0
! New Load.S712ca Bus1=712.3.1 Phases=1 Conn=Delta Model=1 kV=4.800 kW=85.0 kVAR=40.0
! New Load.S713ca Bus1=713.3.1 Phases=1 Conn=Delta Model=1 kV=4.800 kW=85.0 kVAR=40.0
! New Load.S714ab Bus1=714.1.2 Phases=1 Conn=Delta Model=4 kV=4.800 kW=17.0 kVAR=8.0
! New Load.S714bc Bus1=714.2.3 Phases=1 Conn=Delta Model=4 kV=4.800 kW=21.0 kVAR=10.0
! New Load.S718ab Bus1=718.1.2 Phases=1 Conn=Delta Model=2 kV=4.800 kW=85.0 kVAR=40.0
! New Load.S720ca Bus1=720.3.1 Phases=1 Conn=Delta Model=1 kV=4.800 kW=85.0 kVAR=40.0
! New Load.S722bc Bus1=722.2.3 Phases=1 Conn=Delta Model=4 kV=4.800 kW=140.0 kVAR=70.0
! New Load.S722ca Bus1=722.3.1 Phases=1 Conn=Delta Model=4 kV=4.800 kW=21.0 kVAR=10.0
! New Load.S724bc Bus1=724.2.3 Phases=1 Conn=Delta Model=2 kV=4.800 kW=42.0 kVAR=21.0
! New Load.S725bc Bus1=725.2.3 Phases=1 Conn=Delta Model=1 kV=4.800 kW=42.0 kVAR=21.0
! New Load.S727ca Bus1=727.3.1 Phases=1 Conn=Delta Model=1 kV=4.800 kW=42.0 kVAR=21.0
! New Load.S728abc Bus1=728 Phases=3 Conn=Delta Model=1 kV=4.800 kW=126.0 kVAR=63.0
! New Load.S729ab Bus1=729.1.2 Phases=1 Conn=Delta Model=4 kV=4.800 kW=42.0 kVAR=21.0
! New Load.S730ca Bus1=730.3.1 Phases=1 Conn=Delta Model=2 kV=4.800 kW=85.0 kVAR=40.0
! New Load.S731bc Bus1=731.2.3 Phases=1 Conn=Delta Model=2 kV=4.800 kW=85.0 kVAR=40.0
! New Load.S732ca Bus1=732.3.1 Phases=1 Conn=Delta Model=1 kV=4.800 kW=42.0 kVAR=21.0
! New Load.S733ab Bus1=733.1.2 Phases=1 Conn=Delta Model=4 kV=4.800 kW=85.0 kVAR=40.0
! New Load.S734ca Bus1=734.3.1 Phases=1 Conn=Delta Model=1 kV=4.800 kW=42.0 kVAR=21.0
! New Load.S735ca Bus1=735.3.1 Phases=1 Conn=Delta Model=1 kV=4.800 kW=85.0 kVAR=40.0
! New Load.S736bc Bus1=736.2.3 Phases=1 Conn=Delta Model=2 kV=4.800 kW=42.0 kVAR=21.0
! New Load.S737ab Bus1=737.1.2 Phases=1 Conn=Delta Model=4 kV=4.800 kW=140.0 kVAR=70.0
! New Load.S738ab Bus1=738.1.2 Phases=1 Conn=Delta Model=1 kV=4.800 kW=126.0 kVAR=62.0
! New Load.S740ca Bus1=740.3.1 Phases=1 Conn=Delta Model=1 kV=4.800 kW=85.0 kVAR=40.0
! New Load.S741ca Bus1=741.3.1 Phases=1 Conn=Delta Model=4 kV=4.800 kW=42.0 kVAR=21.0
! New Load.S742ab Bus1=742.1.2 Phases=1 Conn=Delta Model=2 kV=4.800 kW=8.0 kVAR=4.0
! New Load.S742bc Bus1=742.2.3 Phases=1 Conn=Delta Model=2 kV=4.800 kW=85.0 kVAR=40.0
! New Load.S744ab Bus1=744.1.2 Phases=1 Conn=Delta Model=1 kV=4.800 kW=42.0 kVAR=21.0

New Load.S701ab Bus1=701.1.2 Phases=2 Conn=Wye Model=1 kV=4.800 kW=140.0 kVAR=70.0
New Load.S701bc Bus1=701.2.3 Phases=2 Conn=Wye Model=1 kV=4.800 kW=140.0 kVAR=70.0
New Load.S701ca Bus1=701.3.1 Phases=2 Conn=Wye Model=1 kV=4.800 kW=350.0 kVAR=175.0
New Load.S712ca Bus1=712.3.1 Phases=2 Conn=Wye Model=1 kV=4.800 kW=85.0 kVAR=40.0
New Load.S713ca Bus1=713.3.1 Phases=2 Conn=Wye Model=1 kV=4.800 kW=85.0 kVAR=40.0
New Load.S714ab Bus1=714.1.2 Phases=2 Conn=Wye Model=4 kV=4.800 kW=17.0 kVAR=8.0
New Load.S714bc Bus1=714.2.3 Phases=2 Conn=Wye Model=4 kV=4.800 kW=21.0 kVAR=10.0
New Load.S718ab Bus1=718.1.2 Phases=2 Conn=Wye Model=2 kV=4.800 kW=85.0 kVAR=40.0
New Load.S720ca Bus1=720.3.1 Phases=2 Conn=Wye Model=1 kV=4.800 kW=85.0 kVAR=40.0
New Load.S722bc Bus1=722.2.3 Phases=2 Conn=Wye Model=4 kV=4.800 kW=140.0 kVAR=70.0
New Load.S722ca Bus1=722.3.1 Phases=2 Conn=Wye Model=4 kV=4.800 kW=21.0 kVAR=10.0
New Load.S724bc Bus1=724.2.3 Phases=2 Conn=Wye Model=2 kV=4.800 kW=42.0 kVAR=21.0
New Load.S725bc Bus1=725.2.3 Phases=2 Conn=Wye Model=1 kV=4.800 kW=42.0 kVAR=21.0
New Load.S727ca Bus1=727.3.1 Phases=2 Conn=Wye Model=1 kV=4.800 kW=42.0 kVAR=21.0
New Load.S728abc Bus1=728.1.2.3 Phases=3 Conn=Wye Model=1 kV=4.800 kW=126.0 kVAR=63.0
New Load.S729ab Bus1=729.1.2 Phases=2 Conn=Wye Model=4 kV=4.800 kW=42.0 kVAR=21.0
New Load.S730ca Bus1=730.3.1 Phases=2 Conn=Wye Model=2 kV=4.800 kW=85.0 kVAR=40.0
New Load.S731bc Bus1=731.2.3 Phases=2 Conn=Wye Model=2 kV=4.800 kW=85.0 kVAR=40.0
New Load.S732ca Bus1=732.3.1 Phases=2 Conn=Wye Model=1 kV=4.800 kW=42.0 kVAR=21.0
New Load.S733ab Bus1=733.1.2 Phases=2 Conn=Wye Model=4 kV=4.800 kW=85.0 kVAR=40.0
New Load.S734ca Bus1=734.3.1 Phases=2 Conn=Wye Model=1 kV=4.800 kW=42.0 kVAR=21.0
New Load.S735ca Bus1=735.3.1 Phases=2 Conn=Wye Model=1 kV=4.800 kW=85.0 kVAR=40.0
New Load.S736bc Bus1=736.2.3 Phases=2 Conn=Wye Model=2 kV=4.800 kW=42.0 kVAR=21.0
New Load.S737ab Bus1=737.1.2 Phases=2 Conn=Wye Model=4 kV=4.800 kW=140.0 kVAR=70.0
New Load.S738ab Bus1=738.1.2 Phases=2 Conn=Wye Model=1 kV=4.800 kW=126.0 kVAR=62.0
New Load.S740ca Bus1=740.3.1 Phases=2 Conn=Wye Model=1 kV=4.800 kW=85.0 kVAR=40.0
New Load.S741ca Bus1=741.3.1 Phases=2 Conn=Wye Model=4 kV=4.800 kW=42.0 kVAR=21.0
New Load.S742ab Bus1=742.1.2 Phases=2 Conn=Wye Model=2 kV=4.800 kW=8.0 kVAR=4.0
New Load.S742bc Bus1=742.2.3 Phases=2 Conn=Wye Model=2 kV=4.800 kW=85.0 kVAR=40.0
New Load.S744ab Bus1=744.1.2 Phases=2 Conn=Wye Model=1 kV=4.800 kW=42.0 kVAR=21.0

Set VoltageBases = "230,4.8,0.48"
CalcVoltageBases
! BusCoords IEEE37_BusXY.csv

! solve mode=direct
set maxiterations=100
Set Controlmode=OFF
solve

! show voltages LL Nodes
! show currents residual=y elements
! show powers kva elements
! show taps

